data/projects/mackelroy/hosting_capacity/volts.csv
Bus, BasekV, Node1, Magnitude1, Angle1, pu1, Node2, Magnitude2, Angle2, pu2, Node3, Magnitude3, Angle3, pu3, Node4, Magnitude4, Angle4, pu4, Node5, Magnitude5, Angle5, pu5, Node6, Magnitude6, Angle6, pu6
"EQ_SOURCE_BUS", 115, 1,    39604.7,   -0.3,    0.5965, 2,      39631, -120.3,    0.5969, 3,    39620.2,  119.6,   0.59673, 0, 0, 0, 0, 0, 0, 0, 0, 0, 0, 0, 0
"BUS1001", 12.47, 1,    8124.51,  -31.6,    1.1285, 2,    8138.12, -151.4,    1.1304, 3,    8138.15,   88.5,    1.1304, 0, 0, 0, 0, 0, 0, 0, 0, 0, 0, 0, 0
"BUS1002", 12.47, 1,     8120.4,  -31.6,    1.1279, 2,    8133.62, -151.4,    1.1297, 3,    8134.11,   88.5,    1.1298, 0, 0, 0, 0, 0, 0, 0, 0, 0, 0, 0, 0
"BUS1003", 12.47, 1,    8120.24,  -31.6,    1.1279, 2,    8133.46, -151.4,    1.1297, 3,    8133.96,   88.5,    1.1298, 0, 0, 0, 0, 0, 0, 0, 0, 0, 0, 0, 0
"BUS1004", 12.47, 1,     8119.7,  -31.6,    1.1278, 2,     8132.7, -151.4,    1.1296, 3,     8133.4,   88.5,    1.1297, 0, 0, 0, 0, 0, 0, 0, 0, 0, 0, 0, 0
"BUS1005", 12.47, 1,    8119.32,  -31.6,    1.1278, 2,    8132.19, -151.4,    1.1295, 3,    8133.01,   88.5,    1.1297, 0, 0, 0, 0, 0, 0, 0, 0, 0, 0, 0, 0
"BUS1006", 12.47, 1,    8118.38,  -31.6,    1.1276, 2,     8130.9, -151.4,    1.1294, 3,    8132.05,   88.5,    1.1295, 0, 0, 0, 0, 0, 0, 0, 0, 0, 0, 0, 0
"BUS1007", 12.47, 1,    8118.25,  -31.6,    1.1276, 2,    8130.62, -151.4,    1.1293, 0, 0, 0, 0, 0, 0, 0, 0, 0, 0, 0, 0, 0, 0, 0, 0
"BUS1008", 12.47, 1,    8118.04,  -31.6,    1.1276, 2,    8130.49, -151.4,    1.1293, 3,    8131.64,   88.5,    1.1295, 0, 0, 0, 0, 0, 0, 0, 0, 0, 0, 0, 0
"BUS1009", 12.47, 1,     8117.5,  -31.6,    1.1275, 2,    8129.79, -151.4,    1.1292, 3,    8130.91,   88.5,    1.1294, 0, 0, 0, 0, 0, 0, 0, 0, 0, 0, 0, 0
"BUS1010", 12.47, 1,    8117.48,  -31.6,    1.1275, 2,    8129.77, -151.4,    1.1292, 3,    8130.89,   88.5,    1.1294, 4,    8117.48,  -31.6,    1.1275, 5,    8129.77, -151.4,    1.1292, 6,    8130.89,   88.5,    1.1294
"BUS1011", 12.47, 1,    8117.49,  -31.6,    1.1275, 2,    8129.77, -151.4,    1.1292, 3,    8130.88,   88.5,    1.1294, 0, 0, 0, 0, 0, 0, 0, 0, 0, 0, 0, 0
"BUS1012", 12.47, 1,     8117.5,  -31.6,    1.1275, 2,    8129.74, -151.4,    1.1292, 3,    8130.84,   88.5,    1.1294, 0, 0, 0, 0, 0, 0, 0, 0, 0, 0, 0, 0
"BUS1013", 12.47, 1,    8117.53,  -31.6,    1.1275, 2,     8129.7, -151.4,    1.1292, 3,    8130.64,   88.5,    1.1293, 0, 0, 0, 0, 0, 0, 0, 0, 0, 0, 0, 0
"BUS1014", 12.47, 2,    8129.67, -151.4,    1.1292, 0, 0, 0, 0, 0, 0, 0, 0, 0, 0, 0, 0, 0, 0, 0, 0, 0, 0, 0, 0
"BUS1015", 12.47, 2,    8129.65, -151.4,    1.1292, 0, 0, 0, 0, 0, 0, 0, 0, 0, 0, 0, 0, 0, 0, 0, 0, 0, 0, 0, 0
"BUS1016", 12.47, 3,    8130.29,   88.5,    1.1293, 0, 0, 0, 0, 0, 0, 0, 0, 0, 0, 0, 0, 0, 0, 0, 0, 0, 0, 0, 0
"BUS1017", 12.47, 3,    8130.27,   88.5,    1.1293, 0, 0, 0, 0, 0, 0, 0, 0, 0, 0, 0, 0, 0, 0, 0, 0, 0, 0, 0, 0
"BUS2001", 12.47, 1,    8124.51,  -31.6,    1.1285, 2,    8138.12, -151.4,    1.1304, 3,    8138.15,   88.5,    1.1304, 0, 0, 0, 0, 0, 0, 0, 0, 0, 0, 0, 0
"BUS2002", 12.47, 1,    8117.96,  -31.6,    1.1276, 2,    8129.29, -151.4,    1.1291, 3,    8131.73,   88.5,    1.1295, 0, 0, 0, 0, 0, 0, 0, 0, 0, 0, 0, 0
"BUS2003", 12.47, 1,    8112.11,  -31.6,    1.1268, 2,    8122.39, -151.4,    1.1282, 3,    8127.23,   88.5,    1.1289, 0, 0, 0, 0, 0, 0, 0, 0, 0, 0, 0, 0
"BUS2004", 12.47, 1,    8108.63,  -31.7,    1.1263, 2,    8118.26, -151.5,    1.1276, 3,    8124.59,   88.5,    1.1285, 0, 0, 0, 0, 0, 0, 0, 0, 0, 0, 0, 0
"BUS2005", 12.47, 1,    8107.25,  -31.7,    1.1261, 2,    8116.61, -151.5,    1.1274, 3,    8123.54,   88.4,    1.1283, 0, 0, 0, 0, 0, 0, 0, 0, 0, 0, 0, 0
"BUS2006", 12.47, 1,    8106.64,  -31.7,     1.126, 2,    8115.88, -151.5,    1.1273, 3,    8123.08,   88.4,    1.1283, 0, 0, 0, 0, 0, 0, 0, 0, 0, 0, 0, 0
"BUS2007", 12.47, 1,    8106.55,  -31.7,     1.126, 0, 0, 0, 0, 0, 0, 0, 0, 0, 0, 0, 0, 0, 0, 0, 0, 0, 0, 0, 0
"BUS2008", 12.47, 1,    8106.51,  -31.7,     1.126, 0, 0, 0, 0, 0, 0, 0, 0, 0, 0, 0, 0, 0, 0, 0, 0, 0, 0, 0, 0
"BUS2009", 12.47, 1,    8106.54,  -31.7,     1.126, 0, 0, 0, 0, 0, 0, 0, 0, 0, 0, 0, 0, 0, 0, 0, 0, 0, 0, 0, 0
"BUS2010", 12.47, 1,    8105.97,  -31.7,    1.1259, 2,    8115.01, -151.5,    1.1272, 3,    8122.55,   88.4,    1.1282, 0, 0, 0, 0, 0, 0, 0, 0, 0, 0, 0, 0
"BUS2011", 12.47, 1,    8104.89,  -31.7,    1.1257, 2,    8113.61, -151.5,     1.127, 3,     8121.7,   88.4,    1.1281, 0, 0, 0, 0, 0, 0, 0, 0, 0, 0, 0, 0
"BUS2012", 12.47, 1,    8102.95,  -31.7,    1.1255, 2,    8111.08, -151.5,    1.1266, 3,    8120.19,   88.4,    1.1279, 0, 0, 0, 0, 0, 0, 0, 0, 0, 0, 0, 0
"BUS2013", 12.47, 1,    8102.95,  -31.7,    1.1255, 2,    8111.08, -151.5,    1.1266, 3,    8120.19,   88.4,    1.1279, 4,    8102.95,  -31.7,    1.1255, 5,    8111.08, -151.5,    1.1266, 6,    8120.19,   88.4,    1.1279
"BUS2014", 12.47, 1,    8102.91,  -31.7,    1.1255, 2,    8110.83, -151.5,    1.1266, 3,    8120.31,   88.4,    1.1279, 0, 0, 0, 0, 0, 0, 0, 0, 0, 0, 0, 0
"BUS2015", 12.47, 2,     8110.8, -151.5,    1.1266, 0, 0, 0, 0, 0, 0, 0, 0, 0, 0, 0, 0, 0, 0, 0, 0, 0, 0, 0, 0
"BUS2016", 12.47, 1,    8102.89,  -31.7,    1.1255, 2,    8110.66, -151.5,    1.1265, 3,    8120.39,   88.4,    1.1279, 0, 0, 0, 0, 0, 0, 0, 0, 0, 0, 0, 0
"BUS2017", 12.47, 1,    8102.92,  -31.7,    1.1255, 2,    8110.48, -151.5,    1.1265, 3,    8120.43,   88.4,    1.1279, 0, 0, 0, 0, 0, 0, 0, 0, 0, 0, 0, 0
"BUS2018", 12.47, 1,    8102.93,  -31.7,    1.1255, 2,    8110.32, -151.5,    1.1265, 3,    8120.47,   88.4,    1.1279, 0, 0, 0, 0, 0, 0, 0, 0, 0, 0, 0, 0
"BUS2019", 12.47, 1,    8102.78,  -31.7,    1.1255, 2,     8110.9, -151.5,    1.1266, 3,    8120.03,   88.4,    1.1279, 0, 0, 0, 0, 0, 0, 0, 0, 0, 0, 0, 0
"BUS2020", 12.47, 2,    8110.64, -151.5,    1.1265, 0, 0, 0, 0, 0, 0, 0, 0, 0, 0, 0, 0, 0, 0, 0, 0, 0, 0, 0, 0
"BUS2021", 12.47, 1,    8102.62,  -31.7,    1.1254, 2,    8110.73, -151.5,    1.1266, 3,    8119.88,   88.4,    1.1278, 0, 0, 0, 0, 0, 0, 0, 0, 0, 0, 0, 0
"BUS2022", 12.47, 3,    8119.64,   88.4,    1.1278, 0, 0, 0, 0, 0, 0, 0, 0, 0, 0, 0, 0, 0, 0, 0, 0, 0, 0, 0, 0
"BUS2023", 12.47, 3,    8119.53,   88.4,    1.1278, 0, 0, 0, 0, 0, 0, 0, 0, 0, 0, 0, 0, 0, 0, 0, 0, 0, 0, 0, 0
"BUS2024", 12.47, 3,    8119.25,   88.4,    1.1277, 0, 0, 0, 0, 0, 0, 0, 0, 0, 0, 0, 0, 0, 0, 0, 0, 0, 0, 0, 0
"BUS2025", 12.47, 3,    8119.12,   88.4,    1.1277, 0, 0, 0, 0, 0, 0, 0, 0, 0, 0, 0, 0, 0, 0, 0, 0, 0, 0, 0, 0
"BUS2026", 12.47, 1,    8102.62,  -31.7,    1.1254, 2,    8110.73, -151.5,    1.1266, 3,    8119.88,   88.4,    1.1278, 0, 0, 0, 0, 0, 0, 0, 0, 0, 0, 0, 0
"BUS2027", 12.47, 1,    8101.17,  -31.7,    1.1252, 2,    8109.34, -151.5,    1.1264, 3,    8118.77,   88.4,    1.1277, 0, 0, 0, 0, 0, 0, 0, 0, 0, 0, 0, 0
"BUS2028", 12.47, 1,    8100.92,  -31.7,    1.1252, 2,    8109.25, -151.5,    1.1264, 3,    8118.67,   88.4,    1.1277, 0, 0, 0, 0, 0, 0, 0, 0, 0, 0, 0, 0
"BUS2029", 12.47, 1,    8100.81,  -31.7,    1.1252, 2,    8109.21, -151.5,    1.1263, 3,    8118.62,   88.4,    1.1277, 0, 0, 0, 0, 0, 0, 0, 0, 0, 0, 0, 0
"BUS2030", 12.47, 1,    8100.71,  -31.7,    1.1252, 2,     8109.2, -151.5,    1.1263, 3,    8118.61,   88.4,    1.1277, 0, 0, 0, 0, 0, 0, 0, 0, 0, 0, 0, 0
"BUS2031", 12.47, 1,    8100.61,  -31.7,    1.1252, 2,    8109.22, -151.5,    1.1264, 3,    8118.62,   88.4,    1.1277, 0, 0, 0, 0, 0, 0, 0, 0, 0, 0, 0, 0
"BUS2032", 12.47, 1,    8100.65,  -31.7,    1.1252, 2,    8108.79, -151.5,    1.1263, 3,    8118.35,   88.4,    1.1276, 0, 0, 0, 0, 0, 0, 0, 0, 0, 0, 0, 0
"BUS2033", 12.47, 1,    8099.65,  -31.7,     1.125, 2,    8107.74, -151.5,    1.1261, 3,    8117.56,   88.4,    1.1275, 0, 0, 0, 0, 0, 0, 0, 0, 0, 0, 0, 0
"BUS2034", 12.47, 1,    8099.63,  -31.7,     1.125, 2,    8107.73, -151.5,    1.1261, 3,    8117.54,   88.4,    1.1275, 0, 0, 0, 0, 0, 0, 0, 0, 0, 0, 0, 0
"BUS2035", 12.47, 1,    8099.11,  -31.7,    1.1249, 2,    8107.17, -151.6,    1.1261, 3,    8117.13,   88.4,    1.1274, 0, 0, 0, 0, 0, 0, 0, 0, 0, 0, 0, 0
"BUS2036", 12.47, 1,    8098.57,  -31.7,    1.1249, 2,    8106.61, -151.6,     1.126, 3,    8116.71,   88.4,    1.1274, 0, 0, 0, 0, 0, 0, 0, 0, 0, 0, 0, 0
"BUS2037", 12.47, 1,    8098.31,  -31.7,    1.1248, 2,    8106.33, -151.6,    1.1259, 3,     8116.5,   88.4,    1.1274, 0, 0, 0, 0, 0, 0, 0, 0, 0, 0, 0, 0
"BUS2038", 12.47, 1,    8097.68,  -31.7,    1.1247, 2,    8105.67, -151.6,    1.1259, 3,    8116.01,   88.4,    1.1273, 0, 0, 0, 0, 0, 0, 0, 0, 0, 0, 0, 0
"BUS2039", 12.47, 1,    8094.81,  -31.7,    1.1243, 2,    8102.65, -151.6,    1.1254, 3,    8113.71,   88.4,     1.127, 0, 0, 0, 0, 0, 0, 0, 0, 0, 0, 0, 0
"BUS2040", 12.47, 1,    8094.43,  -31.7,    1.1243, 2,    8102.27, -151.6,    1.1254, 3,    8113.32,   88.4,    1.1269, 0, 0, 0, 0, 0, 0, 0, 0, 0, 0, 0, 0
"BUS2041", 12.47, 1,    8094.42,  -31.7,    1.1243, 2,    8102.26, -151.6,    1.1254, 3,    8113.31,   88.4,    1.1269, 0, 0, 0, 0, 0, 0, 0, 0, 0, 0, 0, 0
"BUS2042", 12.47, 1,    8094.68,  -31.7,    1.1243, 2,    8102.49, -151.6,    1.1254, 3,     8113.6,   88.4,     1.127, 0, 0, 0, 0, 0, 0, 0, 0, 0, 0, 0, 0
"BUS2043", 12.47, 1,    8094.09,  -31.7,    1.1242, 2,    8101.76, -151.6,    1.1253, 3,    8113.12,   88.4,    1.1269, 0, 0, 0, 0, 0, 0, 0, 0, 0, 0, 0, 0
"BUS2044", 12.47, 1,    8092.88,  -31.7,    1.1241, 2,    8100.25, -151.6,    1.1251, 3,    8112.15,   88.4,    1.1268, 0, 0, 0, 0, 0, 0, 0, 0, 0, 0, 0, 0
"BUS2045", 12.47, 2,    8099.46, -151.6,     1.125, 0, 0, 0, 0, 0, 0, 0, 0, 0, 0, 0, 0, 0, 0, 0, 0, 0, 0, 0, 0
"BUS2046", 12.47, 2,    8099.15, -151.6,     1.125, 0, 0, 0, 0, 0, 0, 0, 0, 0, 0, 0, 0, 0, 0, 0, 0, 0, 0, 0, 0
"BUS2047", 12.47, 2,    8099.23, -151.6,     1.125, 0, 0, 0, 0, 0, 0, 0, 0, 0, 0, 0, 0, 0, 0, 0, 0, 0, 0, 0, 0
"BUS2048", 12.47, 2,    8099.08, -151.6,    1.1249, 0, 0, 0, 0, 0, 0, 0, 0, 0, 0, 0, 0, 0, 0, 0, 0, 0, 0, 0, 0
"BUS2049", 12.47, 1,    8092.79,  -31.7,    1.1241, 2,    8100.13, -151.6,    1.1251, 3,    8111.78,   88.4,    1.1267, 0, 0, 0, 0, 0, 0, 0, 0, 0, 0, 0, 0
"BUS2050", 12.47, 1,    8092.68,  -31.7,    1.1241, 2,       8100, -151.6,    1.1251, 3,    8111.49,   88.4,    1.1267, 0, 0, 0, 0, 0, 0, 0, 0, 0, 0, 0, 0
"BUS2051", 12.47, 1,    8092.55,  -31.7,     1.124, 2,    8099.85, -151.6,     1.125, 3,    8111.23,   88.4,    1.1266, 0, 0, 0, 0, 0, 0, 0, 0, 0, 0, 0, 0
"BUS2052", 12.47, 1,    8092.39,  -31.7,     1.124, 2,     8099.7, -151.6,     1.125, 3,    8111.07,   88.4,    1.1266, 0, 0, 0, 0, 0, 0, 0, 0, 0, 0, 0, 0
"BUS2053", 12.47, 1,    8091.48,  -31.7,    1.1239, 2,    8099.73, -151.6,     1.125, 3,    8111.87,   88.4,    1.1267, 0, 0, 0, 0, 0, 0, 0, 0, 0, 0, 0, 0
"BUS2054", 12.47, 1,    8091.19,  -31.7,    1.1238, 2,    8099.79, -151.6,     1.125, 3,    8111.91,   88.4,    1.1267, 0, 0, 0, 0, 0, 0, 0, 0, 0, 0, 0, 0
"BUS2055", 12.47, 1,    8091.01,  -31.7,    1.1238, 2,    8099.83, -151.6,     1.125, 3,    8111.93,   88.4,    1.1267, 0, 0, 0, 0, 0, 0, 0, 0, 0, 0, 0, 0
"BUS2056", 12.47, 1,    8090.88,  -31.7,    1.1238, 2,    8099.86, -151.6,     1.125, 3,    8111.94,   88.4,    1.1267, 0, 0, 0, 0, 0, 0, 0, 0, 0, 0, 0, 0
"BUS2057", 12.47, 1,    8090.87,  -31.7,    1.1238, 2,     8098.6, -151.6,    1.1249, 3,    8111.31,   88.4,    1.1266, 0, 0, 0, 0, 0, 0, 0, 0, 0, 0, 0, 0
"BUS2058", 12.47, 1,    8090.51,  -31.7,    1.1238, 2,    8098.24, -151.6,    1.1248, 3,    8110.94,   88.4,    1.1266, 0, 0, 0, 0, 0, 0, 0, 0, 0, 0, 0, 0
"BUS2059", 12.47, 1,    8090.93,  -31.7,    1.1238, 2,    8098.19, -151.6,    1.1248, 3,     8111.4,   88.4,    1.1267, 0, 0, 0, 0, 0, 0, 0, 0, 0, 0, 0, 0
"BUS2060", 12.47, 1,    8090.94,  -31.7,    1.1238, 2,    8098.11, -151.6,    1.1248, 3,    8111.42,   88.4,    1.1267, 0, 0, 0, 0, 0, 0, 0, 0, 0, 0, 0, 0
"BUS3001", 12.47, 1,    8124.51,  -31.6,    1.1285, 2,    8138.12, -151.4,    1.1304, 3,    8138.15,   88.5,    1.1304, 0, 0, 0, 0, 0, 0, 0, 0, 0, 0, 0, 0
"BUS3003", 12.47, 1,     8089.9,  -31.7,    1.1237, 2,    8119.78, -151.4,    1.1278, 3,    8111.72,   88.5,    1.1267, 0, 0, 0, 0, 0, 0, 0, 0, 0, 0, 0, 0
"BUS3002", 12.47, 1,    8089.85,  -31.7,    1.1237, 2,    8119.73, -151.4,    1.1278, 3,    8111.67,   88.5,    1.1267, 0, 0, 0, 0, 0, 0, 0, 0, 0, 0, 0, 0
"BUS3004", 12.47, 1,    8089.89,  -31.7,    1.1237, 2,    8119.77, -151.4,    1.1278, 3,    8111.71,   88.5,    1.1267, 0, 0, 0, 0, 0, 0, 0, 0, 0, 0, 0, 0
"BUS3005", 12.47, 1,    8060.62,  -31.7,    1.1196, 2,    8104.59, -151.5,    1.1257, 3,     8089.5,   88.5,    1.1236, 0, 0, 0, 0, 0, 0, 0, 0, 0, 0, 0, 0
"BUS3006", 12.47, 1,    8060.54,  -31.7,    1.1196, 2,    8104.51, -151.5,    1.1257, 3,    8089.43,   88.5,    1.1236, 0, 0, 0, 0, 0, 0, 0, 0, 0, 0, 0, 0
"BUS3007", 12.47, 1,    8060.48,  -31.7,    1.1196, 2,    8104.45, -151.5,    1.1257, 3,    8089.37,   88.5,    1.1236, 0, 0, 0, 0, 0, 0, 0, 0, 0, 0, 0, 0
"BUS3008", 12.47, 1,    8058.96,  -31.8,    1.1194, 2,     8103.7, -151.5,    1.1256, 3,    8087.84,   88.5,    1.1234, 0, 0, 0, 0, 0, 0, 0, 0, 0, 0, 0, 0
"BUS3009", 12.47, 1,    8058.61,  -31.8,    1.1193, 0, 0, 0, 0, 0, 0, 0, 0, 0, 0, 0, 0, 0, 0, 0, 0, 0, 0, 0, 0
"BUS3010", 12.47, 1,    8058.03,  -31.8,    1.1192, 0, 0, 0, 0, 0, 0, 0, 0, 0, 0, 0, 0, 0, 0, 0, 0, 0, 0, 0, 0
"BUS3011", 12.47, 1,    8057.72,  -31.8,    1.1192, 0, 0, 0, 0, 0, 0, 0, 0, 0, 0, 0, 0, 0, 0, 0, 0, 0, 0, 0, 0
"BUS3012", 12.47, 1,     8057.6,  -31.8,    1.1192, 0, 0, 0, 0, 0, 0, 0, 0, 0, 0, 0, 0, 0, 0, 0, 0, 0, 0, 0, 0
"BUS3013", 12.47, 2,    8103.59, -151.5,    1.1256, 0, 0, 0, 0, 0, 0, 0, 0, 0, 0, 0, 0, 0, 0, 0, 0, 0, 0, 0, 0
"BUS3014", 12.47, 2,    8103.49, -151.5,    1.1256, 0, 0, 0, 0, 0, 0, 0, 0, 0, 0, 0, 0, 0, 0, 0, 0, 0, 0, 0, 0
"BUS3015", 12.47, 1,    8055.48,  -31.8,    1.1189, 2,    8101.51, -151.5,    1.1253, 3,    8083.91,   88.5,    1.1228, 0, 0, 0, 0, 0, 0, 0, 0, 0, 0, 0, 0
"BUS3016", 12.47, 2,    8101.18, -151.5,    1.1252, 0, 0, 0, 0, 0, 0, 0, 0, 0, 0, 0, 0, 0, 0, 0, 0, 0, 0, 0, 0
"BUS3017", 12.47, 2,    8100.96, -151.5,    1.1252, 0, 0, 0, 0, 0, 0, 0, 0, 0, 0, 0, 0, 0, 0, 0, 0, 0, 0, 0, 0
"BUS3018", 12.47, 3,    8083.43,   88.5,    1.1228, 0, 0, 0, 0, 0, 0, 0, 0, 0, 0, 0, 0, 0, 0, 0, 0, 0, 0, 0, 0
"BUS3019", 12.47, 3,    8082.84,   88.5,    1.1227, 0, 0, 0, 0, 0, 0, 0, 0, 0, 0, 0, 0, 0, 0, 0, 0, 0, 0, 0, 0
"BUS3020", 12.47, 3,    8082.36,   88.5,    1.1226, 0, 0, 0, 0, 0, 0, 0, 0, 0, 0, 0, 0, 0, 0, 0, 0, 0, 0, 0, 0
"BUS3021", 12.47, 3,     8082.1,   88.5,    1.1226, 0, 0, 0, 0, 0, 0, 0, 0, 0, 0, 0, 0, 0, 0, 0, 0, 0, 0, 0, 0
"BUS3022", 12.47, 1,    8052.19,  -31.8,    1.1184, 2,    8099.91, -151.5,    1.1251, 3,    8080.76,   88.5,    1.1224, 0, 0, 0, 0, 0, 0, 0, 0, 0, 0, 0, 0
"BUS3023", 12.47, 1,     8051.9,  -31.8,    1.1184, 0, 0, 0, 0, 0, 0, 0, 0, 0, 0, 0, 0, 0, 0, 0, 0, 0, 0, 0, 0
"BUS3024", 12.47, 1,    8051.52,  -31.8,    1.1183, 0, 0, 0, 0, 0, 0, 0, 0, 0, 0, 0, 0, 0, 0, 0, 0, 0, 0, 0, 0
"BUS3025", 12.47, 1,     8051.3,  -31.8,    1.1183, 0, 0, 0, 0, 0, 0, 0, 0, 0, 0, 0, 0, 0, 0, 0, 0, 0, 0, 0, 0
"BUS3026", 12.47, 1,    8051.67,  -31.8,    1.1184, 0, 0, 0, 0, 0, 0, 0, 0, 0, 0, 0, 0, 0, 0, 0, 0, 0, 0, 0, 0
"BUS3027", 12.47, 1,    8050.85,  -31.8,    1.1182, 0, 0, 0, 0, 0, 0, 0, 0, 0, 0, 0, 0, 0, 0, 0, 0, 0, 0, 0, 0
"BUS3028", 12.47, 1,    8050.48,  -31.8,    1.1182, 0, 0, 0, 0, 0, 0, 0, 0, 0, 0, 0, 0, 0, 0, 0, 0, 0, 0, 0, 0
"BUS3029", 12.47, 1,    8050.39,  -31.8,    1.1182, 0, 0, 0, 0, 0, 0, 0, 0, 0, 0, 0, 0, 0, 0, 0, 0, 0, 0, 0, 0
"BUS3030", 12.47, 1,    8049.64,  -31.8,    1.1181, 2,    8097.79, -151.5,    1.1248, 3,     8077.6,   88.4,     1.122, 0, 0, 0, 0, 0, 0, 0, 0, 0, 0, 0, 0
"BUS3035", 12.47, 1,    8049.54,  -31.8,    1.1181, 2,    8097.41, -151.5,    1.1247, 3,     8077.7,   88.4,     1.122, 0, 0, 0, 0, 0, 0, 0, 0, 0, 0, 0, 0
"BUS3036", 12.47, 1,     8049.3,  -31.8,     1.118, 2,    8096.44, -151.6,    1.1246, 3,       8078,   88.4,     1.122, 0, 0, 0, 0, 0, 0, 0, 0, 0, 0, 0, 0
"BUS3037", 12.47, 1,    8049.19,  -31.8,     1.118, 2,    8095.97, -151.6,    1.1245, 3,    8078.16,   88.4,     1.122, 0, 0, 0, 0, 0, 0, 0, 0, 0, 0, 0, 0
"BUS3038", 12.47, 1,    8049.01,  -31.8,     1.118, 2,    8095.12, -151.6,    1.1244, 3,    8078.49,   88.4,    1.1221, 0, 0, 0, 0, 0, 0, 0, 0, 0, 0, 0, 0
"BUS3039", 12.47, 1,    8048.87,  -31.8,     1.118, 2,    8094.34, -151.6,    1.1243, 3,    8078.82,   88.4,    1.1221, 0, 0, 0, 0, 0, 0, 0, 0, 0, 0, 0, 0
"BUS3053", 12.47, 1,    8048.72,  -31.8,    1.1179, 2,     8093.5, -151.6,    1.1242, 3,     8079.2,   88.4,    1.1222, 0, 0, 0, 0, 0, 0, 0, 0, 0, 0, 0, 0
"BUS3054", 12.47, 1,     8048.7,  -31.8,    1.1179, 2,    8093.48, -151.6,    1.1242, 3,    8079.18,   88.4,    1.1222, 0, 0, 0, 0, 0, 0, 0, 0, 0, 0, 0, 0
"BUS3055", 12.47, 2,    8084.87, -151.6,     1.123, 0, 0, 0, 0, 0, 0, 0, 0, 0, 0, 0, 0, 0, 0, 0, 0, 0, 0, 0, 0
"BUS3056", 12.47, 2,    8084.51, -151.6,    1.1229, 0, 0, 0, 0, 0, 0, 0, 0, 0, 0, 0, 0, 0, 0, 0, 0, 0, 0, 0, 0
"BUS3057", 12.47, 2,    8084.11, -151.6,    1.1229, 0, 0, 0, 0, 0, 0, 0, 0, 0, 0, 0, 0, 0, 0, 0, 0, 0, 0, 0, 0
"BUS3058", 12.47, 2,     8083.8, -151.6,    1.1228, 0, 0, 0, 0, 0, 0, 0, 0, 0, 0, 0, 0, 0, 0, 0, 0, 0, 0, 0, 0
"BUS3059", 12.47, 2,    8083.45, -151.6,    1.1228, 0, 0, 0, 0, 0, 0, 0, 0, 0, 0, 0, 0, 0, 0, 0, 0, 0, 0, 0, 0
"BUS3060", 12.47, 2,     8083.4, -151.6,    1.1228, 0, 0, 0, 0, 0, 0, 0, 0, 0, 0, 0, 0, 0, 0, 0, 0, 0, 0, 0, 0
"BUS3061", 12.47, 2,    8083.37, -151.6,    1.1228, 0, 0, 0, 0, 0, 0, 0, 0, 0, 0, 0, 0, 0, 0, 0, 0, 0, 0, 0, 0
"BUS3062", 12.47, 2,    8083.23, -151.6,    1.1227, 0, 0, 0, 0, 0, 0, 0, 0, 0, 0, 0, 0, 0, 0, 0, 0, 0, 0, 0, 0
"BUS3063", 12.47, 2,    8082.52, -151.6,    1.1226, 0, 0, 0, 0, 0, 0, 0, 0, 0, 0, 0, 0, 0, 0, 0, 0, 0, 0, 0, 0
"BUS3064", 12.47, 2,     8082.1, -151.6,    1.1226, 0, 0, 0, 0, 0, 0, 0, 0, 0, 0, 0, 0, 0, 0, 0, 0, 0, 0, 0, 0
"BUS3065", 12.47, 2,    8081.76, -151.6,    1.1225, 0, 0, 0, 0, 0, 0, 0, 0, 0, 0, 0, 0, 0, 0, 0, 0, 0, 0, 0, 0
"BUS3066", 12.47, 2,     8081.6, -151.6,    1.1225, 0, 0, 0, 0, 0, 0, 0, 0, 0, 0, 0, 0, 0, 0, 0, 0, 0, 0, 0, 0
"BUS3067", 12.47, 2,    8081.37, -151.6,    1.1225, 0, 0, 0, 0, 0, 0, 0, 0, 0, 0, 0, 0, 0, 0, 0, 0, 0, 0, 0, 0
"BUS3040", 12.47, 1,    8049.79,  -31.8,    1.1181, 2,    8097.53, -151.5,    1.1247, 3,     8076.9,   88.4,    1.1219, 0, 0, 0, 0, 0, 0, 0, 0, 0, 0, 0, 0
"BUS3044", 12.47, 3,    8076.77,   88.4,    1.1218, 0, 0, 0, 0, 0, 0, 0, 0, 0, 0, 0, 0, 0, 0, 0, 0, 0, 0, 0, 0
"BUS3045", 12.47, 3,     8076.6,   88.4,    1.1218, 0, 0, 0, 0, 0, 0, 0, 0, 0, 0, 0, 0, 0, 0, 0, 0, 0, 0, 0, 0
"BUS3041", 12.47, 3,    8076.68,   88.4,    1.1218, 0, 0, 0, 0, 0, 0, 0, 0, 0, 0, 0, 0, 0, 0, 0, 0, 0, 0, 0, 0
"BUS3042", 12.47, 3,    8076.23,   88.4,    1.1218, 0, 0, 0, 0, 0, 0, 0, 0, 0, 0, 0, 0, 0, 0, 0, 0, 0, 0, 0, 0
"BUS3043", 12.47, 3,    8075.96,   88.4,    1.1217, 0, 0, 0, 0, 0, 0, 0, 0, 0, 0, 0, 0, 0, 0, 0, 0, 0, 0, 0, 0
"BUS3046", 12.47, 1,    8049.66,  -31.8,    1.1181, 2,    8097.39, -151.5,    1.1247, 3,    8076.76,   88.4,    1.1218, 0, 0, 0, 0, 0, 0, 0, 0, 0, 0, 0, 0
"BUS3047", 12.47, 1,    8049.62,  -31.8,    1.1181, 2,    8097.36, -151.5,    1.1247, 3,    8076.73,   88.4,    1.1218, 0, 0, 0, 0, 0, 0, 0, 0, 0, 0, 0, 0
"BUS3048", 12.47, 1,    8049.62,  -31.8,    1.1181, 2,    8097.36, -151.5,    1.1247, 3,    8076.73,   88.4,    1.1218, 0, 0, 0, 0, 0, 0, 0, 0, 0, 0, 0, 0
"BUS3049", 12.47, 1,    8049.57,  -31.8,    1.1181, 2,    8097.31, -151.5,    1.1247, 3,    8076.68,   88.4,    1.1218, 0, 0, 0, 0, 0, 0, 0, 0, 0, 0, 0, 0
"BUS3050", 12.47, 1,    8049.54,  -31.8,    1.1181, 2,    8097.27, -151.5,    1.1247, 3,    8076.65,   88.4,    1.1218, 0, 0, 0, 0, 0, 0, 0, 0, 0, 0, 0, 0
"BUS3051", 12.47, 1,    8049.49,  -31.8,    1.1181, 2,    8097.22, -151.5,    1.1247, 3,    8076.59,   88.4,    1.1218, 0, 0, 0, 0, 0, 0, 0, 0, 0, 0, 0, 0
"BUS3052", 12.47, 1,    8049.45,  -31.8,     1.118, 2,    8097.19, -151.5,    1.1247, 3,    8076.56,   88.4,    1.1218, 0, 0, 0, 0, 0, 0, 0, 0, 0, 0, 0, 0
"BUS3031", 12.47, 1,    8047.75,  -31.9,    1.1178, 2,    8097.19, -151.6,    1.1247, 3,    8075.35,   88.4,    1.1216, 0, 0, 0, 0, 0, 0, 0, 0, 0, 0, 0, 0
"BUS3032", 12.47, 1,    8045.81,  -31.9,    1.1175, 2,    8096.58, -151.6,    1.1246, 3,    8073.04,   88.4,    1.1213, 0, 0, 0, 0, 0, 0, 0, 0, 0, 0, 0, 0
"BUS3033", 12.47, 1,    8042.85,  -31.9,    1.1171, 2,    8095.67, -151.6,    1.1245, 3,    8069.51,   88.4,    1.1208, 0, 0, 0, 0, 0, 0, 0, 0, 0, 0, 0, 0
"BUS3034", 12.47, 1,    8040.93,  -31.9,    1.1169, 2,    8095.12, -151.6,    1.1244, 3,    8067.22,   88.4,    1.1205, 0, 0, 0, 0, 0, 0, 0, 0, 0, 0, 0, 0
"BUS3068", 12.47, 1,    8039.72,  -31.9,    1.1167, 2,    8094.77, -151.6,    1.1243, 3,    8065.76,   88.4,    1.1203, 0, 0, 0, 0, 0, 0, 0, 0, 0, 0, 0, 0
"BUS3069", 12.47, 1,    8039.66,  -31.9,    1.1167, 2,    8094.71, -151.6,    1.1243, 3,     8065.7,   88.4,    1.1203, 0, 0, 0, 0, 0, 0, 0, 0, 0, 0, 0, 0
"BUS3070", 12.47, 1,    8039.64,  -31.9,    1.1167, 2,    8094.69, -151.6,    1.1243, 3,    8065.69,   88.4,    1.1203, 0, 0, 0, 0, 0, 0, 0, 0, 0, 0, 0, 0
"BUS3071", 12.47, 1,    8039.63,  -31.9,    1.1167, 2,    8094.68, -151.6,    1.1243, 3,    8065.67,   88.4,    1.1203, 0, 0, 0, 0, 0, 0, 0, 0, 0, 0, 0, 0
"BUS3072", 12.47, 1,    8039.62,  -31.9,    1.1167, 2,    8094.67, -151.6,    1.1243, 3,    8065.67,   88.4,    1.1203, 0, 0, 0, 0, 0, 0, 0, 0, 0, 0, 0, 0
"BUS3073", 12.47, 1,    8039.65,  -31.9,    1.1167, 2,    8094.71, -151.6,    1.1243, 3,     8065.7,   88.4,    1.1203, 0, 0, 0, 0, 0, 0, 0, 0, 0, 0, 0, 0
"BUS3074", 12.47, 1,    8039.62,  -31.9,    1.1167, 2,    8094.68, -151.6,    1.1243, 3,    8065.67,   88.4,    1.1203, 0, 0, 0, 0, 0, 0, 0, 0, 0, 0, 0, 0
"BUS3075", 12.47, 1,    8038.36,  -31.9,    1.1165, 2,    8094.41, -151.6,    1.1243, 3,    8064.13,   88.4,    1.1201, 0, 0, 0, 0, 0, 0, 0, 0, 0, 0, 0, 0
"BUS3076", 12.47, 1,    8038.36,  -31.9,    1.1165, 2,    8094.41, -151.6,    1.1243, 3,    8064.13,   88.4,    1.1201, 0, 0, 0, 0, 0, 0, 0, 0, 0, 0, 0, 0
"BUS3077", 12.47, 1,    8037.71,  -31.9,    1.1164, 2,    8093.75, -151.6,    1.1242, 3,    8063.48,   88.4,      1.12, 0, 0, 0, 0, 0, 0, 0, 0, 0, 0, 0, 0
"BUS3078", 12.47, 1,     8037.7,  -31.9,    1.1164, 2,    8093.74, -151.6,    1.1242, 3,    8063.47,   88.4,      1.12, 0, 0, 0, 0, 0, 0, 0, 0, 0, 0, 0, 0
"BUS3079", 12.47, 1,    8037.12,  -32.0,    1.1163, 2,    8094.18, -151.6,    1.1243, 3,    8062.61,   88.4,    1.1199, 0, 0, 0, 0, 0, 0, 0, 0, 0, 0, 0, 0
"BUS3080", 12.47, 1,    8033.02,  -32.0,    1.1158, 2,    8093.28, -151.6,    1.1241, 3,    8057.61,   88.4,    1.1192, 0, 0, 0, 0, 0, 0, 0, 0, 0, 0, 0, 0
"BUS3081", 12.47, 1,    8033.02,  -32.0,    1.1158, 2,    8093.28, -151.6,    1.1241, 3,    8057.61,   88.4,    1.1192, 4,    8033.02,  -32.0,    1.1158, 5,    8093.28, -151.6,    1.1241, 6,    8057.61,   88.4,    1.1192
"BUS3082", 12.47, 1,    8029.38,  -32.0,    1.1153, 2,    8092.49, -151.6,     1.124, 3,    8053.16,   88.3,    1.1186, 0, 0, 0, 0, 0, 0, 0, 0, 0, 0, 0, 0
"BUS3083", 12.47, 1,    8028.84,  -32.0,    1.1152, 0, 0, 0, 0, 0, 0, 0, 0, 0, 0, 0, 0, 0, 0, 0, 0, 0, 0, 0, 0
"BUS3084", 12.47, 1,    8028.08,  -32.0,    1.1151, 0, 0, 0, 0, 0, 0, 0, 0, 0, 0, 0, 0, 0, 0, 0, 0, 0, 0, 0, 0
"BUS3085", 12.47, 1,    8026.24,  -32.0,    1.1148, 0, 0, 0, 0, 0, 0, 0, 0, 0, 0, 0, 0, 0, 0, 0, 0, 0, 0, 0, 0
"BUS3086", 12.47, 1,    8025.32,  -32.0,    1.1147, 0, 0, 0, 0, 0, 0, 0, 0, 0, 0, 0, 0, 0, 0, 0, 0, 0, 0, 0, 0
"BUS3087", 12.47, 1,    8024.75,  -32.0,    1.1146, 0, 0, 0, 0, 0, 0, 0, 0, 0, 0, 0, 0, 0, 0, 0, 0, 0, 0, 0, 0
"BUS3088", 12.47, 1,    8023.97,  -32.0,    1.1145, 0, 0, 0, 0, 0, 0, 0, 0, 0, 0, 0, 0, 0, 0, 0, 0, 0, 0, 0, 0
"BUS3089", 12.47, 1,    8023.88,  -32.0,    1.1145, 0, 0, 0, 0, 0, 0, 0, 0, 0, 0, 0, 0, 0, 0, 0, 0, 0, 0, 0, 0
"BUS3090", 12.47, 1,    8023.48,  -32.0,    1.1144, 0, 0, 0, 0, 0, 0, 0, 0, 0, 0, 0, 0, 0, 0, 0, 0, 0, 0, 0, 0
"BUS3091", 12.47, 1,    8023.41,  -32.0,    1.1144, 0, 0, 0, 0, 0, 0, 0, 0, 0, 0, 0, 0, 0, 0, 0, 0, 0, 0, 0, 0
"BUS3092", 12.47, 1,    8028.99,  -32.0,    1.1152, 2,    8092.48, -151.6,     1.124, 3,    8052.38,   88.3,    1.1185, 0, 0, 0, 0, 0, 0, 0, 0, 0, 0, 0, 0
"BUS3093", 12.47, 1,    8028.16,  -32.0,    1.1151, 0, 0, 0, 0, 0, 0, 0, 0, 0, 0, 0, 0, 0, 0, 0, 0, 0, 0, 0, 0
"BUS3094", 12.47, 1,    8027.78,  -32.0,     1.115, 0, 0, 0, 0, 0, 0, 0, 0, 0, 0, 0, 0, 0, 0, 0, 0, 0, 0, 0, 0
"BUS3095", 12.47, 1,    8027.61,  -32.0,     1.115, 0, 0, 0, 0, 0, 0, 0, 0, 0, 0, 0, 0, 0, 0, 0, 0, 0, 0, 0, 0
"BUS3096", 12.47, 1,    8027.06,  -32.0,    1.1149, 0, 0, 0, 0, 0, 0, 0, 0, 0, 0, 0, 0, 0, 0, 0, 0, 0, 0, 0, 0
"BUS3097", 12.47, 1,    8026.88,  -32.0,    1.1149, 0, 0, 0, 0, 0, 0, 0, 0, 0, 0, 0, 0, 0, 0, 0, 0, 0, 0, 0, 0
"BUS3098", 12.47, 2,    8092.07, -151.6,     1.124, 0, 0, 0, 0, 0, 0, 0, 0, 0, 0, 0, 0, 0, 0, 0, 0, 0, 0, 0, 0
"BUS3099", 12.47, 2,    8091.88, -151.6,    1.1239, 0, 0, 0, 0, 0, 0, 0, 0, 0, 0, 0, 0, 0, 0, 0, 0, 0, 0, 0, 0
"BUS3100", 12.47, 1,     8029.1,  -32.0,    1.1152, 2,    8092.53, -151.6,     1.124, 3,    8051.93,   88.3,    1.1184, 0, 0, 0, 0, 0, 0, 0, 0, 0, 0, 0, 0
"BUS3101", 12.47, 3,    8051.56,   88.3,    1.1183, 0, 0, 0, 0, 0, 0, 0, 0, 0, 0, 0, 0, 0, 0, 0, 0, 0, 0, 0, 0
"BUS3102", 12.47, 3,    8051.12,   88.3,    1.1183, 0, 0, 0, 0, 0, 0, 0, 0, 0, 0, 0, 0, 0, 0, 0, 0, 0, 0, 0, 0
"BUS3103", 12.47, 3,    8050.99,   88.3,    1.1183, 0, 0, 0, 0, 0, 0, 0, 0, 0, 0, 0, 0, 0, 0, 0, 0, 0, 0, 0, 0
"BUS3104", 12.47, 3,    8051.28,   88.3,    1.1183, 0, 0, 0, 0, 0, 0, 0, 0, 0, 0, 0, 0, 0, 0, 0, 0, 0, 0, 0, 0
"BUS3105", 12.47, 3,    8051.07,   88.3,    1.1183, 0, 0, 0, 0, 0, 0, 0, 0, 0, 0, 0, 0, 0, 0, 0, 0, 0, 0, 0, 0
"BUS3106", 12.47, 3,    8050.82,   88.3,    1.1182, 0, 0, 0, 0, 0, 0, 0, 0, 0, 0, 0, 0, 0, 0, 0, 0, 0, 0, 0, 0
"BUS3107", 12.47, 1,    8021.85,  -32.0,    1.1142, 2,    8089.15, -151.6,    1.1236, 3,    8046.14,   88.3,    1.1176, 0, 0, 0, 0, 0, 0, 0, 0, 0, 0, 0, 0
"BUS3108", 12.47, 1,    8019.19,  -32.1,    1.1138, 0, 0, 0, 0, 0, 0, 0, 0, 0, 0, 0, 0, 0, 0, 0, 0, 0, 0, 0, 0
"BUS3109", 12.47, 1,    8018.45,  -32.1,    1.1137, 0, 0, 0, 0, 0, 0, 0, 0, 0, 0, 0, 0, 0, 0, 0, 0, 0, 0, 0, 0
"BUS3110", 12.47, 1,    8017.92,  -32.1,    1.1137, 0, 0, 0, 0, 0, 0, 0, 0, 0, 0, 0, 0, 0, 0, 0, 0, 0, 0, 0, 0
"BUS3111", 12.47, 1,    8017.27,  -32.1,    1.1136, 0, 0, 0, 0, 0, 0, 0, 0, 0, 0, 0, 0, 0, 0, 0, 0, 0, 0, 0, 0
"BUS3112", 12.47, 1,    8016.91,  -32.1,    1.1135, 0, 0, 0, 0, 0, 0, 0, 0, 0, 0, 0, 0, 0, 0, 0, 0, 0, 0, 0, 0
"BUS3113", 12.47, 2,    8088.38, -151.6,    1.1235, 0, 0, 0, 0, 0, 0, 0, 0, 0, 0, 0, 0, 0, 0, 0, 0, 0, 0, 0, 0
"BUS3114", 12.47, 2,    8088.13, -151.6,    1.1234, 0, 0, 0, 0, 0, 0, 0, 0, 0, 0, 0, 0, 0, 0, 0, 0, 0, 0, 0, 0
"BUS3115", 12.47, 2,    8087.82, -151.6,    1.1234, 0, 0, 0, 0, 0, 0, 0, 0, 0, 0, 0, 0, 0, 0, 0, 0, 0, 0, 0, 0
"BUS3116", 12.47, 2,     8087.7, -151.6,    1.1234, 0, 0, 0, 0, 0, 0, 0, 0, 0, 0, 0, 0, 0, 0, 0, 0, 0, 0, 0, 0
"BUS3117", 12.47, 2,    8087.64, -151.6,    1.1234, 0, 0, 0, 0, 0, 0, 0, 0, 0, 0, 0, 0, 0, 0, 0, 0, 0, 0, 0, 0
"BUS3118", 12.47, 1,    8014.02,  -32.0,    1.1131, 2,    8083.03, -151.6,    1.1227, 3,    8049.49,   88.3,    1.1181, 0, 0, 0, 0, 0, 0, 0, 0, 0, 0, 0, 0
"BUS3119", 12.47, 2,    8080.25, -151.6,    1.1223, 0, 0, 0, 0, 0, 0, 0, 0, 0, 0, 0, 0, 0, 0, 0, 0, 0, 0, 0, 0
"BUS3120", 12.47, 2,    8079.78, -151.6,    1.1223, 0, 0, 0, 0, 0, 0, 0, 0, 0, 0, 0, 0, 0, 0, 0, 0, 0, 0, 0, 0
"BUS3121", 12.47, 2,    8079.58, -151.6,    1.1222, 0, 0, 0, 0, 0, 0, 0, 0, 0, 0, 0, 0, 0, 0, 0, 0, 0, 0, 0, 0
"BUS3122", 12.47, 2,    8079.47, -151.6,    1.1222, 0, 0, 0, 0, 0, 0, 0, 0, 0, 0, 0, 0, 0, 0, 0, 0, 0, 0, 0, 0
"BUS3123", 12.47, 2,    8079.83, -151.6,    1.1223, 0, 0, 0, 0, 0, 0, 0, 0, 0, 0, 0, 0, 0, 0, 0, 0, 0, 0, 0, 0
...
"BUS_FAULT", 12.47, 1,    8124.51,  -31.6,    1.1285, 2,    8138.12, -151.4,    1.1304, 3,    8138.15,   88.5,    1.1304, 0, 0, 0, 0, 0, 0, 0, 0, 0, 0, 0, 0
"T_BUS1006_L", 0.208, 1,    120.611,  -33.2,    1.0043, 2,    122.553, -151.4,    1.0205, 0, 0, 0, 0, 0, 0, 0, 0, 0, 0, 0, 0, 0, 0, 0, 0
"T_BUS1007_L", 0.208, 1,    119.838,  -34.0,   0.99791, 2,    122.548, -151.4,    1.0205, 0, 0, 0, 0, 0, 0, 0, 0, 0, 0, 0, 0, 0, 0, 0, 0
"T_BUS1011_L", 0.208, 1,    121.364,  -32.0,    1.0106, 2,    121.364,  148.0,    1.0106, 0, 0, 0, 0, 0, 0, 0, 0, 0, 0, 0, 0, 0, 0, 0, 0
"T_BUS1012_L", 0.208, 1,    121.198, -151.6,    1.0092, 2,    121.198,   28.4,    1.0092, 0, 0, 0, 0, 0, 0, 0, 0, 0, 0, 0, 0, 0, 0, 0, 0
"T_BUS1014_L", 0.208, 1,    122.294, -151.4,    1.0184, 2,    122.294,   28.6,    1.0184, 0, 0, 0, 0, 0, 0, 0, 0, 0, 0, 0, 0, 0, 0, 0, 0
"T_BUS1015_L", 0.208, 1,    122.242, -151.5,    1.0179, 2,    122.242,   28.5,    1.0179, 0, 0, 0, 0, 0, 0, 0, 0, 0, 0, 0, 0, 0, 0, 0, 0
"T_BUS1016_L", 0.208, 1,     121.54,   88.4,    1.0121, 2,     121.54,  -91.6,    1.0121, 0, 0, 0, 0, 0, 0, 0, 0, 0, 0, 0, 0, 0, 0, 0, 0
"T_BUS1017_L", 0.208, 1,    121.623,   88.4,    1.0128, 2,    121.623,  -91.6,    1.0128, 0, 0, 0, 0, 0, 0, 0, 0, 0, 0, 0, 0, 0, 0, 0, 0
"T_BUS2008_L", 0.208, 1,    121.421,  -31.9,    1.0111, 2,    121.421,  148.1,    1.0111, 0, 0, 0, 0, 0, 0, 0, 0, 0, 0, 0, 0, 0, 0, 0, 0
"T_BUS2009_L", 0.208, 1,     121.71,  -31.8,    1.0135, 2,     121.71,  148.2,    1.0135, 0, 0, 0, 0, 0, 0, 0, 0, 0, 0, 0, 0, 0, 0, 0, 0
"T_BUS2014_L", 0.208, 1,     121.07, -151.7,    1.0082, 2,     121.07,   28.3,    1.0082, 0, 0, 0, 0, 0, 0, 0, 0, 0, 0, 0, 0, 0, 0, 0, 0
"T_BUS2015_L", 0.208, 1,    121.685, -151.7,    1.0133, 2,    121.685,   28.3,    1.0133, 0, 0, 0, 0, 0, 0, 0, 0, 0, 0, 0, 0, 0, 0, 0, 0
"T_BUS2016_L", 0.208, 1,    121.747, -151.7,    1.0138, 2,    121.747,   28.3,    1.0138, 0, 0, 0, 0, 0, 0, 0, 0, 0, 0, 0, 0, 0, 0, 0, 0
"T_BUS2017_L", 0.208, 1,    120.456, -152.0,    1.0031, 2,    120.456,   28.0,    1.0031, 0, 0, 0, 0, 0, 0, 0, 0, 0, 0, 0, 0, 0, 0, 0, 0
"T_BUS2018_L", 0.208, 1,    121.377, -151.9,    1.0107, 2,    121.377,   28.1,    1.0107, 0, 0, 0, 0, 0, 0, 0, 0, 0, 0, 0, 0, 0, 0, 0, 0
"T_BUS2020_L", 0.208, 1,    121.272, -151.9,    1.0099, 2,    121.272,   28.1,    1.0099, 0, 0, 0, 0, 0, 0, 0, 0, 0, 0, 0, 0, 0, 0, 0, 0
"T_BUS2022_L", 0.208, 1,    121.404,   88.1,     1.011, 2,    121.404,  -91.9,     1.011, 0, 0, 0, 0, 0, 0, 0, 0, 0, 0, 0, 0, 0, 0, 0, 0
"T_BUS2023_L", 0.208, 1,    121.963,   88.3,    1.0156, 2,    121.963,  -91.7,    1.0156, 0, 0, 0, 0, 0, 0, 0, 0, 0, 0, 0, 0, 0, 0, 0, 0
"T_BUS2024_L", 0.208, 1,    121.697,   88.1,    1.0134, 2,    121.697,  -91.9,    1.0134, 0, 0, 0, 0, 0, 0, 0, 0, 0, 0, 0, 0, 0, 0, 0, 0
"T_BUS2025_L", 0.208, 1,    121.455,   88.1,    1.0114, 2,    121.455,  -91.9,    1.0114, 0, 0, 0, 0, 0, 0, 0, 0, 0, 0, 0, 0, 0, 0, 0, 0
"T_BUS2028_L", 0.208, 1,    122.006,  -31.7,     1.016, 2,    122.006,  148.3,     1.016, 0, 0, 0, 0, 0, 0, 0, 0, 0, 0, 0, 0, 0, 0, 0, 0
"T_BUS2031_L", 0.208, 1,    120.915,  -32.0,    1.0069, 2,    120.915,  148.0,    1.0069, 0, 0, 0, 0, 0, 0, 0, 0, 0, 0, 0, 0, 0, 0, 0, 0
"T_BUS2045_L", 0.208, 1,    120.977, -151.9,    1.0074, 2,    120.977,   28.1,    1.0074, 0, 0, 0, 0, 0, 0, 0, 0, 0, 0, 0, 0, 0, 0, 0, 0
"T_BUS2046_L", 0.208, 1,     120.12, -151.9,    1.0003, 2,     120.12,   28.1,    1.0003, 0, 0, 0, 0, 0, 0, 0, 0, 0, 0, 0, 0, 0, 0, 0, 0
"T_BUS2047_L", 0.208, 1,    120.603, -151.9,    1.0043, 2,    120.603,   28.1,    1.0043, 0, 0, 0, 0, 0, 0, 0, 0, 0, 0, 0, 0, 0, 0, 0, 0
"T_BUS2048_L", 0.208, 1,    120.895, -151.7,    1.0067, 2,    120.895,   28.3,    1.0067, 0, 0, 0, 0, 0, 0, 0, 0, 0, 0, 0, 0, 0, 0, 0, 0
"T_BUS2049_L", 0.208, 1,    120.749,   88.2,    1.0055, 2,    120.749,  -91.8,    1.0055, 0, 0, 0, 0, 0, 0, 0, 0, 0, 0, 0, 0, 0, 0, 0, 0
"T_BUS2050_L", 0.208, 1,    120.854,   88.0,    1.0064, 2,    120.854,  -92.0,    1.0064, 0, 0, 0, 0, 0, 0, 0, 0, 0, 0, 0, 0, 0, 0, 0, 0
"T_BUS2051_L", 0.208, 1,    119.775,   88.1,   0.99738, 2,    119.775,  -91.9,   0.99738, 0, 0, 0, 0, 0, 0, 0, 0, 0, 0, 0, 0, 0, 0, 0, 0
"T_BUS2054_L", 0.208, 1,    118.829,  -32.0,   0.98951, 2,    118.829,  148.0,   0.98951, 0, 0, 0, 0, 0, 0, 0, 0, 0, 0, 0, 0, 0, 0, 0, 0
"T_BUS2055_L", 0.208, 1,    120.759,  -32.0,    1.0056, 2,    120.759,  148.0,    1.0056, 0, 0, 0, 0, 0, 0, 0, 0, 0, 0, 0, 0, 0, 0, 0, 0
"T_BUS2056_L", 0.208, 1,    120.378,  -32.2,    1.0024, 2,    120.378,  147.8,    1.0024, 0, 0, 0, 0, 0, 0, 0, 0, 0, 0, 0, 0, 0, 0, 0, 0
"T_BUS2059_L", 0.208, 1,    121.091, -151.9,    1.0083, 2,    121.091,   28.1,    1.0083, 0, 0, 0, 0, 0, 0, 0, 0, 0, 0, 0, 0, 0, 0, 0, 0
"T_BUS2060_L", 0.208, 1,    121.409, -151.8,     1.011, 2,    121.409,   28.2,     1.011, 0, 0, 0, 0, 0, 0, 0, 0, 0, 0, 0, 0, 0, 0, 0, 0
"T_BUS3009_L", 0.208, 1,    119.721,  -32.0,   0.99693, 2,    119.721,  148.0,   0.99693, 0, 0, 0, 0, 0, 0, 0, 0, 0, 0, 0, 0, 0, 0, 0, 0
"T_BUS3010_L", 0.208, 1,    119.364,  -32.0,   0.99397, 2,    119.364,  148.0,   0.99397, 0, 0, 0, 0, 0, 0, 0, 0, 0, 0, 0, 0, 0, 0, 0, 0
"T_BUS3011_L", 0.208, 1,    118.489,  -32.2,   0.98668, 2,    118.489,  147.8,   0.98668, 0, 0, 0, 0, 0, 0, 0, 0, 0, 0, 0, 0, 0, 0, 0, 0
"T_BUS3012_L", 0.208, 1,    120.339,  -32.0,    1.0021, 2,    120.339,  148.0,    1.0021, 0, 0, 0, 0, 0, 0, 0, 0, 0, 0, 0, 0, 0, 0, 0, 0
"T_BUS3013_L", 0.208, 1,    121.351, -151.8,    1.0105, 2,    121.351,   28.2,    1.0105, 0, 0, 0, 0, 0, 0, 0, 0, 0, 0, 0, 0, 0, 0, 0, 0
"T_BUS3014_L", 0.208, 1,    120.752, -151.7,    1.0055, 2,    120.752,   28.3,    1.0055, 0, 0, 0, 0, 0, 0, 0, 0, 0, 0, 0, 0, 0, 0, 0, 0
"T_BUS3016_L", 0.208, 1,    119.354, -151.8,   0.99388, 2,    119.354,   28.2,   0.99388, 0, 0, 0, 0, 0, 0, 0, 0, 0, 0, 0, 0, 0, 0, 0, 0
"T_BUS3017_L", 0.208, 1,    121.121, -151.9,    1.0086, 2,    121.121,   28.1,    1.0086, 0, 0, 0, 0, 0, 0, 0, 0, 0, 0, 0, 0, 0, 0, 0, 0
"T_BUS3018_L", 0.208, 1,    119.614,   88.2,   0.99605, 2,    119.614,  -91.8,   0.99605, 0, 0, 0, 0, 0, 0, 0, 0, 0, 0, 0, 0, 0, 0, 0, 0
"T_BUS3019_L", 0.208, 1,    119.627,   88.1,   0.99616, 2,    119.627,  -91.9,   0.99616, 0, 0, 0, 0, 0, 0, 0, 0, 0, 0, 0, 0, 0, 0, 0, 0
"T_BUS3020_L", 0.208, 1,     120.99,   88.2,    1.0075, 2,     120.99,  -91.8,    1.0075, 0, 0, 0, 0, 0, 0, 0, 0, 0, 0, 0, 0, 0, 0, 0, 0
"T_BUS3021_L", 0.208, 1,     118.51,   88.1,   0.98685, 2,     118.51,  -91.9,   0.98685, 0, 0, 0, 0, 0, 0, 0, 0, 0, 0, 0, 0, 0, 0, 0, 0
"T_BUS3023_L", 0.208, 1,    120.271,  -32.1,    1.0015, 2,    120.271,  147.9,    1.0015, 0, 0, 0, 0, 0, 0, 0, 0, 0, 0, 0, 0, 0, 0, 0, 0
"T_BUS3024_L", 0.208, 1,    119.234,  -32.1,   0.99288, 2,    119.234,  147.9,   0.99288, 0, 0, 0, 0, 0, 0, 0, 0, 0, 0, 0, 0, 0, 0, 0, 0
"T_BUS3025_L", 0.208, 1,    119.588,  -32.2,   0.99583, 2,    119.588,  147.8,   0.99583, 0, 0, 0, 0, 0, 0, 0, 0, 0, 0, 0, 0, 0, 0, 0, 0
"T_BUS3026_L", 0.208, 1,    117.615,  -32.6,    0.9794, 2,    117.615,  147.4,    0.9794, 0, 0, 0, 0, 0, 0, 0, 0, 0, 0, 0, 0, 0, 0, 0, 0
"T_BUS3027_L", 0.208, 1,    120.587,  -32.2,    1.0041, 2,    120.587,  147.8,    1.0041, 0, 0, 0, 0, 0, 0, 0, 0, 0, 0, 0, 0, 0, 0, 0, 0
"T_BUS3028_L", 0.208, 1,    119.865,  -32.2,   0.99813, 2,    119.865,  147.8,   0.99813, 0, 0, 0, 0, 0, 0, 0, 0, 0, 0, 0, 0, 0, 0, 0, 0
"T_BUS3029_L", 0.208, 1,    120.178,  -31.9,    1.0007, 2,    120.178,  148.1,    1.0007, 0, 0, 0, 0, 0, 0, 0, 0, 0, 0, 0, 0, 0, 0, 0, 0
"T_BUS3041_L", 0.208, 1,    120.332,   88.1,     1.002, 2,    120.332,  -91.9,     1.002, 0, 0, 0, 0, 0, 0, 0, 0, 0, 0, 0, 0, 0, 0, 0, 0
"T_BUS3042_L", 0.208, 1,    118.971,   87.7,   0.99069, 2,    118.971,  -92.3,   0.99069, 0, 0, 0, 0, 0, 0, 0, 0, 0, 0, 0, 0, 0, 0, 0, 0
"T_BUS3043_L", 0.208, 1,    119.092,   87.9,    0.9917, 2,    119.092,  -92.1,    0.9917, 0, 0, 0, 0, 0, 0, 0, 0, 0, 0, 0, 0, 0, 0, 0, 0
"T_BUS3044_L", 0.208, 1,    119.939,   88.2,   0.99875, 2,    119.939,  -91.8,   0.99875, 0, 0, 0, 0, 0, 0, 0, 0, 0, 0, 0, 0, 0, 0, 0, 0
"T_BUS3045_L", 0.208, 1,    119.987,   88.1,   0.99915, 2,    119.987,  -91.9,   0.99915, 0, 0, 0, 0, 0, 0, 0, 0, 0, 0, 0, 0, 0, 0, 0, 0
"T_BUS3056_L", 0.208, 1,    120.242, -151.8,    1.0013, 2,    120.242,   28.2,    1.0013, 0, 0, 0, 0, 0, 0, 0, 0, 0, 0, 0, 0, 0, 0, 0, 0
"T_BUS3057_L", 0.208, 1,    120.178, -151.7,    1.0007, 2,    120.178,   28.3,    1.0007, 0, 0, 0, 0, 0, 0, 0, 0, 0, 0, 0, 0, 0, 0, 0, 0
"T_BUS3058_L", 0.208, 1,    120.385, -151.8,    1.0025, 2,    120.385,   28.2,    1.0025, 0, 0, 0, 0, 0, 0, 0, 0, 0, 0, 0, 0, 0, 0, 0, 0
"T_BUS3059_L", 0.208, 1,    119.908, -151.8,   0.99849, 2,    119.908,   28.2,   0.99849, 0, 0, 0, 0, 0, 0, 0, 0, 0, 0, 0, 0, 0, 0, 0, 0
"T_BUS3060_L", 0.208, 1,    120.319, -151.8,    1.0019, 2,    120.319,   28.2,    1.0019, 0, 0, 0, 0, 0, 0, 0, 0, 0, 0, 0, 0, 0, 0, 0, 0
"T_BUS3061_L", 0.208, 1,    121.247, -151.7,    1.0096, 2,    121.247,   28.3,    1.0096, 0, 0, 0, 0, 0, 0, 0, 0, 0, 0, 0, 0, 0, 0, 0, 0
"T_BUS3062_L", 0.208, 1,    121.345, -151.6,    1.0105, 2,    121.345,   28.4,    1.0105, 0, 0, 0, 0, 0, 0, 0, 0, 0, 0, 0, 0, 0, 0, 0, 0
"T_BUS3063_L", 0.208, 1,    119.144, -152.0,   0.99213, 2,    119.144,   28.0,   0.99213, 0, 0, 0, 0, 0, 0, 0, 0, 0, 0, 0, 0, 0, 0, 0, 0
"T_BUS3064_L", 0.208, 1,    118.772, -152.1,   0.98903, 2,    118.772,   27.9,   0.98903, 0, 0, 0, 0, 0, 0, 0, 0, 0, 0, 0, 0, 0, 0, 0, 0
"T_BUS3065_L", 0.208, 1,     120.59, -151.8,    1.0042, 2,     120.59,   28.2,    1.0042, 0, 0, 0, 0, 0, 0, 0, 0, 0, 0, 0, 0, 0, 0, 0, 0
"T_BUS3066_L", 0.208, 1,     120.32, -151.7,    1.0019, 2,     120.32,   28.3,    1.0019, 0, 0, 0, 0, 0, 0, 0, 0, 0, 0, 0, 0, 0, 0, 0, 0
"T_BUS3067_L", 0.208, 1,    119.299, -152.0,   0.99342, 2,    119.299,   28.0,   0.99342, 0, 0, 0, 0, 0, 0, 0, 0, 0, 0, 0, 0, 0, 0, 0, 0
"T_BUS3083_L", 0.208, 1,    119.541,  -32.3,   0.99543, 2,    119.541,  147.7,   0.99543, 0, 0, 0, 0, 0, 0, 0, 0, 0, 0, 0, 0, 0, 0, 0, 0
"T_BUS3084_L", 0.208, 1,    120.049,  -32.2,   0.99967, 2,    120.049,  147.8,   0.99967, 0, 0, 0, 0, 0, 0, 0, 0, 0, 0, 0, 0, 0, 0, 0, 0
"T_BUS3085_L", 0.208, 1,    118.392,  -32.5,   0.98587, 2,    118.392,  147.5,   0.98587, 0, 0, 0, 0, 0, 0, 0, 0, 0, 0, 0, 0, 0, 0, 0, 0
"T_BUS3086_L", 0.208, 1,    119.913,  -32.2,   0.99854, 2,    119.913,  147.8,   0.99854, 0, 0, 0, 0, 0, 0, 0, 0, 0, 0, 0, 0, 0, 0, 0, 0
"T_BUS3087_L", 0.208, 1,    119.174,  -32.2,   0.99238, 2,    119.174,  147.8,   0.99238, 0, 0, 0, 0, 0, 0, 0, 0, 0, 0, 0, 0, 0, 0, 0, 0
"T_BUS3088_L", 0.208, 1,    117.856,  -32.7,    0.9814, 2,    117.856,  147.3,    0.9814, 0, 0, 0, 0, 0, 0, 0, 0, 0, 0, 0, 0, 0, 0, 0, 0
"T_BUS3089_L", 0.208, 1,    120.511,  -32.1,    1.0035, 2,    120.511,  147.9,    1.0035, 0, 0, 0, 0, 0, 0, 0, 0, 0, 0, 0, 0, 0, 0, 0, 0
"T_BUS3090_L", 0.208, 1,    119.718,  -32.3,   0.99692, 2,    119.718,  147.7,   0.99692, 0, 0, 0, 0, 0, 0, 0, 0, 0, 0, 0, 0, 0, 0, 0, 0
"T_BUS3091_L", 0.208, 1,    120.151,  -32.3,    1.0005, 2,    120.151,  147.7,    1.0005, 0, 0, 0, 0, 0, 0, 0, 0, 0, 0, 0, 0, 0, 0, 0, 0
"T_BUS3093_L", 0.208, 1,     119.13,  -32.2,   0.99201, 2,     119.13,  147.8,   0.99201, 0, 0, 0, 0, 0, 0, 0, 0, 0, 0, 0, 0, 0, 0, 0, 0
"T_BUS3094_L", 0.208, 1,    119.822,  -32.3,   0.99778, 2,    119.822,  147.7,   0.99778, 0, 0, 0, 0, 0, 0, 0, 0, 0, 0, 0, 0, 0, 0, 0, 0
"T_BUS3095_L", 0.208, 1,    118.575,  -32.4,   0.98739, 2,    118.575,  147.6,   0.98739, 0, 0, 0, 0, 0, 0, 0, 0, 0, 0, 0, 0, 0, 0, 0, 0
"T_BUS3096_L", 0.208, 1,    119.785,  -32.2,   0.99747, 2,    119.785,  147.8,   0.99747, 0, 0, 0, 0, 0, 0, 0, 0, 0, 0, 0, 0, 0, 0, 0, 0
"T_BUS3097_L", 0.208, 1,    116.584,  -32.7,   0.97081, 2,    116.584,  147.3,   0.97081, 0, 0, 0, 0, 0, 0, 0, 0, 0, 0, 0, 0, 0, 0, 0, 0
"T_BUS3098_L", 0.208, 1,    120.059, -151.9,   0.99975, 2,    120.059,   28.1,   0.99975, 0, 0, 0, 0, 0, 0, 0, 0, 0, 0, 0, 0, 0, 0, 0, 0
"T_BUS3099_L", 0.208, 1,    120.328, -152.0,     1.002, 2,    120.328,   28.0,     1.002, 0, 0, 0, 0, 0, 0, 0, 0, 0, 0, 0, 0, 0, 0, 0, 0
"T_BUS3101_L", 0.208, 1,    120.241,   88.2,    1.0013, 2,    120.241,  -91.8,    1.0013, 0, 0, 0, 0, 0, 0, 0, 0, 0, 0, 0, 0, 0, 0, 0, 0
"T_BUS3102_L", 0.208, 1,    118.166,   87.8,   0.98399, 2,    118.166,  -92.2,   0.98399, 0, 0, 0, 0, 0, 0, 0, 0, 0, 0, 0, 0, 0, 0, 0, 0
"T_BUS3103_L", 0.208, 1,    119.416,   88.0,    0.9944, 2,    119.416,  -92.0,    0.9944, 0, 0, 0, 0, 0, 0, 0, 0, 0, 0, 0, 0, 0, 0, 0, 0
"T_BUS3104_L", 0.208, 1,    120.317,   88.0,    1.0019, 2,    120.317,  -92.0,    1.0019, 0, 0, 0, 0, 0, 0, 0, 0, 0, 0, 0, 0, 0, 0, 0, 0
"T_BUS3105_L", 0.208, 1,    120.151,   88.1,    1.0005, 2,    120.151,  -91.9,    1.0005, 0, 0, 0, 0, 0, 0, 0, 0, 0, 0, 0, 0, 0, 0, 0, 0
"T_BUS3106_L", 0.208, 1,    120.119,   87.9,    1.0002, 2,    120.119,  -92.1,    1.0002, 0, 0, 0, 0, 0, 0, 0, 0, 0, 0, 0, 0, 0, 0, 0, 0
"T_BUS3108_L", 0.208, 1,    119.945,  -32.2,    0.9988, 2,    119.945,  147.8,    0.9988, 0, 0, 0, 0, 0, 0, 0, 0, 0, 0, 0, 0, 0, 0, 0, 0
"T_BUS3109_L", 0.208, 1,      115.1,  -32.6,   0.95846, 2,      115.1,  147.4,   0.95846, 0, 0, 0, 0, 0, 0, 0, 0, 0, 0, 0, 0, 0, 0, 0, 0
"T_BUS3110_L", 0.208, 1,    118.585,  -32.7,   0.98748, 2,    118.585,  147.3,   0.98748, 0, 0, 0, 0, 0, 0, 0, 0, 0, 0, 0, 0, 0, 0, 0, 0
"T_BUS3111_L", 0.208, 1,    118.288,  -32.6,     0.985, 2,    118.288,  147.4,     0.985, 0, 0, 0, 0, 0, 0, 0, 0, 0, 0, 0, 0, 0, 0, 0, 0
"T_BUS3112_L", 0.208, 1,    118.623,  -32.7,    0.9878, 2,    118.623,  147.3,    0.9878, 0, 0, 0, 0, 0, 0, 0, 0, 0, 0, 0, 0, 0, 0, 0, 0
"T_BUS3114_L", 0.208, 1,    119.648, -151.8,   0.99633, 2,    119.648,   28.2,   0.99633, 0, 0, 0, 0, 0, 0, 0, 0, 0, 0, 0, 0, 0, 0, 0, 0
"T_BUS3115_L", 0.208, 1,    120.022, -152.2,   0.99944, 2,    120.022,   27.8,   0.99944, 0, 0, 0, 0, 0, 0, 0, 0, 0, 0, 0, 0, 0, 0, 0, 0
"T_BUS3116_L", 0.208, 1,    119.023, -152.1,   0.99112, 2,    119.023,   27.9,   0.99112, 0, 0, 0, 0, 0, 0, 0, 0, 0, 0, 0, 0, 0, 0, 0, 0
"T_BUS3117_L", 0.208, 1,    120.227, -151.8,    1.0011, 2,    120.227,   28.2,    1.0011, 0, 0, 0, 0, 0, 0, 0, 0, 0, 0, 0, 0, 0, 0, 0, 0
"T_BUS3120_L", 0.208, 1,    120.568, -151.9,     1.004, 2,    120.568,   28.1,     1.004, 0, 0, 0, 0, 0, 0, 0, 0, 0, 0, 0, 0, 0, 0, 0, 0
"T_BUS3121_L", 0.208, 1,    120.619, -151.9,    1.0044, 2,    120.619,   28.1,    1.0044, 0, 0, 0, 0, 0, 0, 0, 0, 0, 0, 0, 0, 0, 0, 0, 0
"T_BUS3122_L", 0.208, 1,    119.914, -151.8,   0.99854, 2,    119.914,   28.2,   0.99854, 0, 0, 0, 0, 0, 0, 0, 0, 0, 0, 0, 0, 0, 0, 0, 0
"T_BUS3123_L", 0.208, 1,    119.527, -151.8,   0.99532, 2,    119.527,   28.2,   0.99532, 0, 0, 0, 0, 0, 0, 0, 0, 0, 0, 0, 0, 0, 0, 0, 0
"T_BUS3124_L", 0.208, 1,    120.288, -151.8,    1.0017, 2,    120.288,   28.2,    1.0017, 0, 0, 0, 0, 0, 0, 0, 0, 0, 0, 0, 0, 0, 0, 0, 0
"T_BUS3125_L", 0.208, 1,    121.246, -151.7,    1.0096, 2,    121.246,   28.3,    1.0096, 0, 0, 0, 0, 0, 0, 0, 0, 0, 0, 0, 0, 0, 0, 0, 0
"T_BUS3126_L", 0.208, 1,    119.093, -151.9,   0.99171, 2,    119.093,   28.1,   0.99171, 0, 0, 0, 0, 0, 0, 0, 0, 0, 0, 0, 0, 0, 0, 0, 0
"T_BUS3127_L", 0.208, 1,    119.435, -152.1,   0.99455, 2,    119.435,   27.9,   0.99455, 0, 0, 0, 0, 0, 0, 0, 0, 0, 0, 0, 0, 0, 0, 0, 0
"T_BUS3128_L", 0.208, 1,      120.2, -151.9,    1.0009, 2,      120.2,   28.1,    1.0009, 0, 0, 0, 0, 0, 0, 0, 0, 0, 0, 0, 0, 0, 0, 0, 0
"T_BUS3129_L", 0.208, 1,    120.866, -151.8,    1.0065, 2,    120.866,   28.2,    1.0065, 0, 0, 0, 0, 0, 0, 0, 0, 0, 0, 0, 0, 0, 0, 0, 0
"T_BUS3130_L", 0.208, 1,    120.311, -152.0,    1.0019, 2,    120.311,   28.0,    1.0019, 0, 0, 0, 0, 0, 0, 0, 0, 0, 0, 0, 0, 0, 0, 0, 0
"T_BUS3131_L", 0.208, 1,    120.138, -151.8,    1.0004, 2,    120.138,   28.2,    1.0004, 0, 0, 0, 0, 0, 0, 0, 0, 0, 0, 0, 0, 0, 0, 0, 0
"T_BUS3132_L", 0.208, 1,    117.464,  -32.6,   0.97815, 2,    117.464,  147.4,   0.97815, 0, 0, 0, 0, 0, 0, 0, 0, 0, 0, 0, 0, 0, 0, 0, 0
"T_BUS3134_L", 0.208, 1,    119.261,  -32.5,   0.99311, 2,    119.261,  147.5,   0.99311, 0, 0, 0, 0, 0, 0, 0, 0, 0, 0, 0, 0, 0, 0, 0, 0
"T_BUS3135_L", 0.208, 1,    117.915,  -32.5,    0.9819, 2,    117.915,  147.5,    0.9819, 0, 0, 0, 0, 0, 0, 0, 0, 0, 0, 0, 0, 0, 0, 0, 0
"T_BUS3136_L", 0.208, 1,    117.898,  -32.4,   0.98176, 2,    117.898,  147.6,   0.98176, 0, 0, 0, 0, 0, 0, 0, 0, 0, 0, 0, 0, 0, 0, 0, 0
"T_BUS3137_L", 0.208, 1,    117.379,  -33.0,   0.97743, 2,    117.379,  147.0,   0.97743, 0, 0, 0, 0, 0, 0, 0, 0, 0, 0, 0, 0, 0, 0, 0, 0
"T_BUS3138_L", 0.208, 1,    118.255,  -32.4,   0.98473, 2,    118.255,  147.6,   0.98473, 0, 0, 0, 0, 0, 0, 0, 0, 0, 0, 0, 0, 0, 0, 0, 0
"T_BUS3139_L", 0.208, 1,    120.612,  -32.1,    1.0044, 2,    120.612,  147.9,    1.0044, 0, 0, 0, 0, 0, 0, 0, 0, 0, 0, 0, 0, 0, 0, 0, 0
"T_BUS3141_L", 0.208, 1,    119.359,   87.9,   0.99392, 2,    119.359,  -92.1,   0.99392, 0, 0, 0, 0, 0, 0, 0, 0, 0, 0, 0, 0, 0, 0, 0, 0
"T_BUS3142_L", 0.208, 1,     119.63,   88.0,   0.99618, 2,     119.63,  -92.0,   0.99618, 0, 0, 0, 0, 0, 0, 0, 0, 0, 0, 0, 0, 0, 0, 0, 0
"T_BUS3143_L", 0.208, 1,    118.147,   87.9,   0.98383, 2,    118.147,  -92.1,   0.98383, 0, 0, 0, 0, 0, 0, 0, 0, 0, 0, 0, 0, 0, 0, 0, 0
"T_BUS3144_L", 0.208, 1,     120.83,   88.3,    1.0062, 2,     120.83,  -91.7,    1.0062, 0, 0, 0, 0, 0, 0, 0, 0, 0, 0, 0, 0, 0, 0, 0, 0
"T_BUS3145_L", 0.208, 1,    120.328,   88.3,     1.002, 2,    120.328,  -91.7,     1.002, 0, 0, 0, 0, 0, 0, 0, 0, 0, 0, 0, 0, 0, 0, 0, 0
"T_BUS3146_L", 0.208, 1,    120.406,   88.3,    1.0026, 2,    120.406,  -91.7,    1.0026, 0, 0, 0, 0, 0, 0, 0, 0, 0, 0, 0, 0, 0, 0, 0, 0
"T_BUS3147_L", 0.208, 1,    117.597,   88.0,   0.97925, 2,    117.597,  -92.0,   0.97925, 0, 0, 0, 0, 0, 0, 0, 0, 0, 0, 0, 0, 0, 0, 0, 0
"T_BUS3148_L", 0.208, 1,    118.306,   87.9,   0.98515, 2,    118.306,  -92.1,   0.98515, 0, 0, 0, 0, 0, 0, 0, 0, 0, 0, 0, 0, 0, 0, 0, 0
"T_BUS3149_L", 0.208, 1,    120.271,   88.2,    1.0015, 2,    120.271,  -91.8,    1.0015, 0, 0, 0, 0, 0, 0, 0, 0, 0, 0, 0, 0, 0, 0, 0, 0
"T_BUS3150_L", 0.208, 1,    120.431,   88.0,    1.0028, 2,    120.431,  -92.0,    1.0028, 0, 0, 0, 0, 0, 0, 0, 0, 0, 0, 0, 0, 0, 0, 0, 0
"T_BUS3151_L", 0.208, 1,    120.624,   88.1,    1.0045, 2,    120.624,  -91.9,    1.0045, 0, 0, 0, 0, 0, 0, 0, 0, 0, 0, 0, 0, 0, 0, 0, 0
"T_BUS3152_L", 0.208, 1,    120.456,   88.1,    1.0031, 2,    120.456,  -91.9,    1.0031, 0, 0, 0, 0, 0, 0, 0, 0, 0, 0, 0, 0, 0, 0, 0, 0
"T_BUS3153_L", 0.208, 1,    118.567,   88.1,   0.98733, 2,    118.567,  -91.9,   0.98733, 0, 0, 0, 0, 0, 0, 0, 0, 0, 0, 0, 0, 0, 0, 0, 0
"T_BUS3154_L", 0.208, 1,    119.991,   87.7,   0.99919, 2,    119.991,  -92.3,   0.99919, 0, 0, 0, 0, 0, 0, 0, 0, 0, 0, 0, 0, 0, 0, 0, 0
"T_BUS3155_L", 0.208, 1,     120.67,   88.2,    1.0048, 2,     120.67,  -91.8,    1.0048, 0, 0, 0, 0, 0, 0, 0, 0, 0, 0, 0, 0, 0, 0, 0, 0
"T_BUS3157_L", 0.208, 1,    118.391,   87.9,   0.98586, 2,    118.391,  -92.1,   0.98586, 0, 0, 0, 0, 0, 0, 0, 0, 0, 0, 0, 0, 0, 0, 0, 0
"T_BUS3158_L", 0.208, 1,    119.459,   87.9,   0.99475, 2,    119.459,  -92.1,   0.99475, 0, 0, 0, 0, 0, 0, 0, 0, 0, 0, 0, 0, 0, 0, 0, 0
"T_BUS3159_L", 0.208, 1,    118.305,   87.9,   0.98514, 2,    118.305,  -92.1,   0.98514, 0, 0, 0, 0, 0, 0, 0, 0, 0, 0, 0, 0, 0, 0, 0, 0
"T_BUS3160_L", 0.208, 1,    119.857,   87.8,   0.99807, 2,    119.857,  -92.2,   0.99807, 0, 0, 0, 0, 0, 0, 0, 0, 0, 0, 0, 0, 0, 0, 0, 0
"T_BUS3161_L", 0.208, 1,     120.43,   88.0,    1.0028, 2,     120.43,  -92.0,    1.0028, 0, 0, 0, 0, 0, 0, 0, 0, 0, 0, 0, 0, 0, 0, 0, 0
"T_BUS3162_L", 0.208, 1,    120.133,   87.8,    1.0004, 2,    120.133,  -92.2,    1.0004, 0, 0, 0, 0, 0, 0, 0, 0, 0, 0, 0, 0, 0, 0, 0, 0
"T_BUS1003_L", 0.208, 1,    120.861,  -32.3,    1.0064, 2,    121.058, -152.1,    1.0081, 3,    121.066,   87.8,    1.0081, 0, 0, 0, 0, 0, 0, 0, 0, 0, 0, 0, 0
"T_BUS1004_L", 0.208, 1,    121.412,  -31.7,     1.011, 2,    121.607, -151.5,    1.0126, 3,    121.617,   88.4,    1.0127, 0, 0, 0, 0, 0, 0, 0, 0, 0, 0, 0, 0
"T_BUS1005_L", 0.208, 1,     121.72,  -31.7,    1.0136, 2,    121.913, -151.5,    1.0152, 3,    121.926,   88.4,    1.0153, 0, 0, 0, 0, 0, 0, 0, 0, 0, 0, 0, 0
"T_BUS1008_L", 0.208, 1,    118.997,  -31.9,   0.99091, 2,     119.18, -151.7,   0.99243, 3,    119.196,   88.2,   0.99257, 0, 0, 0, 0, 0, 0, 0, 0, 0, 0, 0, 0
"T_BUS1009_L", 0.208, 1,    120.094,  -32.0,         1, 2,    120.276, -151.8,    1.0016, 3,    120.292,   88.2,    1.0017, 0, 0, 0, 0, 0, 0, 0, 0, 0, 0, 0, 0
"T_BUS1010_L", 0.208, 1,    120.679,  -31.8,    1.0049, 2,    120.862, -151.6,    1.0064, 3,    120.878,   88.3,    1.0066, 0, 0, 0, 0, 0, 0, 0, 0, 0, 0, 0, 0
"T_BUS1013_L", 0.208, 1,    122.008,  -31.7,     1.016, 2,    122.191, -151.5,    1.0175, 3,    122.205,   88.5,    1.0176, 0, 0, 0, 0, 0, 0, 0, 0, 0, 0, 0, 0
"T_BUS2002_L", 0.208, 1,    121.295,  -32.2,      1.01, 2,    121.464, -151.9,    1.0115, 3,    121.501,   88.0,    1.0118, 0, 0, 0, 0, 0, 0, 0, 0, 0, 0, 0, 0
"T_BUS2003_L", 0.208, 1,    120.547,  -32.0,    1.0038, 2,    120.699, -151.8,    1.0051, 3,    120.771,   88.1,    1.0057, 0, 0, 0, 0, 0, 0, 0, 0, 0, 0, 0, 0
"T_BUS2005_L", 0.208, 1,     120.11,  -31.9,    1.0002, 2,    120.249, -151.7,    1.0013, 3,    120.352,   88.2,    1.0022, 0, 0, 0, 0, 0, 0, 0, 0, 0, 0, 0, 0
"T_BUS2010_L", 0.208, 1,    121.636,  -31.7,    1.0129, 2,    121.772, -151.6,     1.014, 3,    121.885,   88.4,     1.015, 0, 0, 0, 0, 0, 0, 0, 0, 0, 0, 0, 0
"T_BUS2011_L", 0.208, 1,    120.946,  -31.8,    1.0071, 2,    121.076, -151.7,    1.0082, 3,    121.197,   88.3,    1.0092, 0, 0, 0, 0, 0, 0, 0, 0, 0, 0, 0, 0
"T_BUS2029_L", 0.208, 1,    120.996,  -32.0,    1.0076, 2,    121.122, -151.8,    1.0086, 3,    121.262,   88.1,    1.0098, 0, 0, 0, 0, 0, 0, 0, 0, 0, 0, 0, 0
"T_BUS2030_L", 0.208, 1,    121.347,  -31.8,    1.0105, 2,    121.474, -151.6,    1.0115, 3,    121.615,   88.3,    1.0127, 0, 0, 0, 0, 0, 0, 0, 0, 0, 0, 0, 0
"T_BUS2032_L", 0.208, 1,    121.557,  -31.7,    1.0122, 2,    121.679, -151.6,    1.0132, 3,    121.822,   88.4,    1.0144, 0, 0, 0, 0, 0, 0, 0, 0, 0, 0, 0, 0
"T_BUS2034_L", 0.208, 1,    121.356,  -31.7,    1.0106, 2,    121.478, -151.6,    1.0116, 3,    121.625,   88.4,    1.0128, 0, 0, 0, 0, 0, 0, 0, 0, 0, 0, 0, 0
"T_BUS2035_L", 0.208, 1,    121.559,  -31.8,    1.0122, 2,     121.68, -151.6,    1.0132, 3,    121.829,   88.3,    1.0145, 0, 0, 0, 0, 0, 0, 0, 0, 0, 0, 0, 0
"T_BUS2037_L", 0.208, 1,    121.168,  -31.8,     1.009, 2,    121.288, -151.7,      1.01, 3,     121.44,   88.3,    1.0113, 0, 0, 0, 0, 0, 0, 0, 0, 0, 0, 0, 0
"T_BUS2040_L", 0.208, 1,    119.197,  -33.4,   0.99257, 2,    119.312, -153.2,   0.99353, 3,    119.475,   86.7,   0.99489, 0, 0, 0, 0, 0, 0, 0, 0, 0, 0, 0, 0
"T_BUS2041_L", 0.208, 1,    121.597,  -31.8,    1.0126, 2,    121.715, -151.7,    1.0135, 3,    121.881,   88.3,    1.0149, 0, 0, 0, 0, 0, 0, 0, 0, 0, 0, 0, 0
"T_BUS2042_L", 0.208, 1,    121.411,  -31.8,     1.011, 2,    121.529, -151.7,     1.012, 3,    121.695,   88.3,    1.0134, 0, 0, 0, 0, 0, 0, 0, 0, 0, 0, 0, 0
"T_BUS2043_L", 0.208, 1,    121.209,  -31.9,    1.0093, 2,    121.324, -151.8,    1.0103, 3,    121.494,   88.2,    1.0117, 0, 0, 0, 0, 0, 0, 0, 0, 0, 0, 0, 0
"T_BUS2052_L", 0.208, 1,    119.907,  -33.1,   0.99849, 2,    120.015, -153.0,   0.99939, 3,    120.184,   87.0,    1.0008, 0, 0, 0, 0, 0, 0, 0, 0, 0, 0, 0, 0
"T_BUS2053_L", 0.208, 1,    121.727,  -31.9,    1.0136, 2,    121.852, -151.7,    1.0147, 3,    122.034,   88.2,    1.0162, 0, 0, 0, 0, 0, 0, 0, 0, 0, 0, 0, 0
"T_BUS2058_L", 0.208, 1,    120.751,  -32.4,    1.0055, 2,    120.867, -152.2,    1.0065, 3,    121.056,   87.7,    1.0081, 0, 0, 0, 0, 0, 0, 0, 0, 0, 0, 0, 0
"T_BUS3002_L", 0.208, 1,    117.527,  -32.2,   0.97867, 2,    117.961, -152.0,   0.98228, 3,    117.844,   88.0,   0.98131, 0, 0, 0, 0, 0, 0, 0, 0, 0, 0, 0, 0
"T_BUS3004_L", 0.208, 1,    121.167,  -31.7,     1.009, 2,    121.614, -151.5,    1.0127, 3,    121.493,   88.5,    1.0117, 0, 0, 0, 0, 0, 0, 0, 0, 0, 0, 0, 0
"T_BUS3006_L", 0.208, 1,    120.518,  -31.8,    1.0036, 2,    121.176, -151.6,    1.0091, 3,     120.95,   88.4,    1.0072, 0, 0, 0, 0, 0, 0, 0, 0, 0, 0, 0, 0
"T_BUS3007_L", 0.208, 1,    120.176,  -31.9,    1.0007, 2,    120.831, -151.7,    1.0062, 3,    120.607,   88.3,    1.0043, 0, 0, 0, 0, 0, 0, 0, 0, 0, 0, 0, 0
"T_BUS3031_L", 0.208, 1,    120.405,  -32.0,    1.0026, 2,    121.144, -151.7,    1.0088, 3,    120.818,   88.2,    1.0061, 0, 0, 0, 0, 0, 0, 0, 0, 0, 0, 0, 0
"T_BUS3032_L", 0.208, 1,    119.878,  -32.0,   0.99825, 2,    120.635, -151.7,    1.0045, 3,    120.284,   88.3,    1.0016, 0, 0, 0, 0, 0, 0, 0, 0, 0, 0, 0, 0
"T_BUS3033_L", 0.208, 1,    119.006,  -32.2,   0.99098, 2,    119.787, -151.8,   0.99749, 3,      119.4,   88.1,   0.99427, 0, 0, 0, 0, 0, 0, 0, 0, 0, 0, 0, 0
"T_BUS3034_L", 0.208, 1,    120.234,  -32.1,    1.0012, 2,    121.044, -151.8,     1.008, 3,    120.627,   88.2,    1.0045, 0, 0, 0, 0, 0, 0, 0, 0, 0, 0, 0, 0
"T_BUS3035_L", 0.208, 1,    118.902,  -32.2,   0.99011, 2,    119.609, -151.9,     0.996, 3,    119.318,   88.1,   0.99358, 0, 0, 0, 0, 0, 0, 0, 0, 0, 0, 0, 0
"T_BUS3036_L", 0.208, 1,    120.434,  -32.0,    1.0029, 2,     121.14, -151.7,    1.0088, 3,    120.864,   88.3,    1.0065, 0, 0, 0, 0, 0, 0, 0, 0, 0, 0, 0, 0
"T_BUS3037_L", 0.208, 1,    119.625,  -32.0,   0.99614, 2,    120.321, -151.7,    1.0019, 3,    120.056,   88.3,   0.99973, 0, 0, 0, 0, 0, 0, 0, 0, 0, 0, 0, 0
"T_BUS3038_L", 0.208, 1,    119.971,  -32.0,   0.99902, 2,    120.658, -151.8,    1.0047, 3,     120.41,   88.2,    1.0027, 0, 0, 0, 0, 0, 0, 0, 0, 0, 0, 0, 0
"T_BUS3039_L", 0.208, 1,    120.277,  -32.0,    1.0016, 2,    120.956, -151.8,    1.0072, 3,    120.724,   88.2,    1.0053, 0, 0, 0, 0, 0, 0, 0, 0, 0, 0, 0, 0
"T_BUS3047_L", 0.208, 1,    119.009,  -32.1,   0.99101, 2,    119.715, -151.8,   0.99689, 3,     119.41,   88.1,   0.99435, 0, 0, 0, 0, 0, 0, 0, 0, 0, 0, 0, 0
"T_BUS3048_L", 0.208, 1,    120.747,  -32.0,    1.0055, 2,    121.463, -151.7,    1.0114, 3,    121.154,   88.3,    1.0089, 0, 0, 0, 0, 0, 0, 0, 0, 0, 0, 0, 0
"T_BUS3049_L", 0.208, 1,    120.928,  -31.9,     1.007, 2,    121.645, -151.6,     1.013, 3,    121.336,   88.4,    1.0104, 0, 0, 0, 0, 0, 0, 0, 0, 0, 0, 0, 0
"T_BUS3050_L", 0.208, 1,    120.696,  -31.9,    1.0051, 2,    121.412, -151.6,     1.011, 3,    121.103,   88.4,    1.0084, 0, 0, 0, 0, 0, 0, 0, 0, 0, 0, 0, 0
"T_BUS3051_L", 0.208, 1,    120.742,  -31.9,    1.0054, 2,    121.458, -151.6,    1.0114, 3,    121.149,   88.4,    1.0088, 0, 0, 0, 0, 0, 0, 0, 0, 0, 0, 0, 0
"T_BUS3052_L", 0.208, 1,    119.838,  -31.9,   0.99791, 2,    120.549, -151.7,    1.0038, 3,    120.242,   88.3,    1.0013, 0, 0, 0, 0, 0, 0, 0, 0, 0, 0, 0, 0
"T_BUS3054_L", 0.208, 1,    120.725,  -31.9,    1.0053, 2,    121.397, -151.6,    1.0109, 3,    121.182,   88.4,    1.0091, 0, 0, 0, 0, 0, 0, 0, 0, 0, 0, 0, 0
"T_BUS3070_L", 0.208, 1,    121.006,  -32.0,    1.0076, 2,    121.834, -151.6,    1.0145, 3,    121.398,   88.3,    1.0109, 0, 0, 0, 0, 0, 0, 0, 0, 0, 0, 0, 0
"T_BUS3071_L", 0.208, 1,    120.689,  -32.0,     1.005, 2,    121.515, -151.6,    1.0119, 3,     121.08,   88.3,    1.0083, 0, 0, 0, 0, 0, 0, 0, 0, 0, 0, 0, 0
"T_BUS3072_L", 0.208, 1,    120.779,  -32.0,    1.0057, 2,    121.606, -151.7,    1.0126, 3,    121.171,   88.3,     1.009, 0, 0, 0, 0, 0, 0, 0, 0, 0, 0, 0, 0
"T_BUS3073_L", 0.208, 1,    120.622,  -32.0,    1.0044, 2,    121.448, -151.6,    1.0113, 3,    121.013,   88.3,    1.0077, 0, 0, 0, 0, 0, 0, 0, 0, 0, 0, 0, 0
"T_BUS3074_L", 0.208, 1,    120.025,  -32.0,   0.99947, 2,    120.847, -151.7,    1.0063, 3,    120.414,   88.3,    1.0027, 0, 0, 0, 0, 0, 0, 0, 0, 0, 0, 0, 0
"T_BUS3077_L", 0.208, 1,    120.084,  -32.6,   0.99996, 2,    120.921, -152.3,    1.0069, 3,    120.469,   87.7,    1.0032, 0, 0, 0, 0, 0, 0, 0, 0, 0, 0, 0, 0
"T_BUS3078_L", 0.208, 1,    120.182,  -32.0,    1.0008, 2,     121.02, -151.7,    1.0078, 3,    120.567,   88.3,     1.004, 0, 0, 0, 0, 0, 0, 0, 0, 0, 0, 0, 0
"T_BUS3081_L", 0.208, 1,    120.736,  -32.1,    1.0054, 2,    121.642, -151.6,    1.0129, 3,    121.105,   88.3,    1.0085, 0, 0, 0, 0, 0, 0, 0, 0, 0, 0, 0, 0
"BUS_XFMR", 12.47, 1,    7830.99,  -31.6,    1.0877, 2,    7844.09, -151.4,    1.0895, 3,    7844.13,   88.5,    1.0895, 0, 0, 0, 0, 0, 0, 0, 0, 0, 0, 0, 0
